<?xml version="1.0" encoding="UTF-8"?>

<!-- generated on 2023-09-27 20:14:45 by Eclipse SUMO netedit Version v1_16_0+0702-8919c10b8c1
<configuration xmlns:xsi="http://www.w3.org/2001/XMLSchema-instance" xsi:noNamespaceSchemaLocation="http://sumo.dlr.de/xsd/netconvertConfiguration.xsd">

    <input>
        <sumo-net-file value="/home/jean/Work/simulations/projects/mosaic/scenarios/Ccr_sqy/db/sqy.net.xml"/>
    </input>

    <output>
        <output-file value="/home/jean/Work/simulations/projects/mosaic/scenarios/Ccr_sqy/db/sqy.net.xml"/>
        <output.street-names value="true"/>
    </output>

    <processing>
        <geometry.min-radius.fix.railways value="false"/>
        <geometry.max-grade.fix value="false"/>
        <offset.disable-normalization value="true"/>
        <lefthand value="0"/>
    </processing>

    <junctions>
        <no-internal-links value="false"/>
        <no-turnarounds value="true"/>
        <junctions.corner-detail value="5"/>
        <junctions.limit-turn-speed value="5.50"/>
        <rectangular-lane-cut value="0"/>
    </junctions>

    <pedestrian>
        <walkingareas value="1"/>
    </pedestrian>

</configuration>
-->

<net version="1.16" junctionCornerDetail="5" walkingareas="true" limitTurnSpeed="5.50" xmlns:xsi="http://www.w3.org/2001/XMLSchema-instance" xsi:noNamespaceSchemaLocation="http://sumo.dlr.de/xsd/net_file.xsd">

    <location netOffset="-422519.17,-5407509.90" convBoundary="133.29,0.00,3727.05,2438.52" origBoundary="1.944105,48.815870,1.995050,48.851272" projParameter="+proj=utm +zone=31 +ellps=WGS84 +datum=WGS84 +units=m +no_defs"/>

    <type id="cycleway.lane|highway.living_street" priority="2" numLanes="1" speed="13.89" disallow="tram rail_urban rail rail_electric rail_fast ship" oneway="0" bikeLaneWidth="1.00"/>
    <type id="cycleway.lane|highway.primary" priority="12" numLanes="2" speed="13.89" disallow="pedestrian tram rail_urban rail rail_electric rail_fast ship" oneway="0" sidewalkWidth="3.00" bikeLaneWidth="1.00"/>
    <type id="cycleway.lane|highway.residential" priority="3" numLanes="1" speed="13.89" disallow="pedestrian tram rail_urban rail rail_electric rail_fast ship" oneway="0" sidewalkWidth="2.00" bikeLaneWidth="1.00"/>
    <type id="cycleway.lane|highway.secondary" priority="11" numLanes="1" speed="13.89" disallow="pedestrian tram rail_urban rail rail_electric rail_fast ship" oneway="0" sidewalkWidth="3.00" bikeLaneWidth="1.00"/>
    <type id="cycleway.track|highway.residential" priority="3" numLanes="1" speed="13.89" disallow="pedestrian tram rail_urban rail rail_electric rail_fast ship" oneway="0" sidewalkWidth="2.00" bikeLaneWidth="1.50"/>
    <type id="highway.footway" priority="1" numLanes="1" speed="2.78" allow="pedestrian" oneway="1" width="2.00"/>
    <type id="highway.living_street" priority="2" numLanes="1" speed="2.78" disallow="tram rail_urban rail rail_electric rail_fast ship" oneway="0"/>
    <type id="highway.path" priority="1" numLanes="1" speed="5.56" allow="pedestrian bicycle" oneway="0" width="2.00"/>
    <type id="highway.pedestrian" priority="1" numLanes="1" speed="2.78" allow="pedestrian" oneway="1" width="2.00"/>
    <type id="highway.primary" priority="12" numLanes="2" speed="13.89" disallow="pedestrian tram rail_urban rail rail_electric rail_fast ship" oneway="0" sidewalkWidth="3.00"/>
    <type id="highway.primary_link" priority="7" numLanes="1" speed="13.89" disallow="pedestrian tram rail_urban rail rail_electric rail_fast ship" oneway="0" sidewalkWidth="3.00"/>
    <type id="highway.residential" priority="3" numLanes="1" speed="13.89" disallow="pedestrian tram rail_urban rail rail_electric rail_fast ship" oneway="0" sidewalkWidth="2.00"/>
    <type id="highway.secondary" priority="11" numLanes="1" speed="13.89" disallow="pedestrian tram rail_urban rail rail_electric rail_fast ship" oneway="0" sidewalkWidth="3.00"/>
    <type id="highway.service" priority="1" numLanes="1" speed="5.56" allow="pedestrian delivery bicycle" oneway="0"/>
    <type id="highway.tertiary" priority="10" numLanes="1" speed="13.89" disallow="pedestrian tram rail_urban rail rail_electric rail_fast ship" oneway="0" sidewalkWidth="3.00"/>
    <type id="highway.unclassified" priority="4" numLanes="1" speed="13.89" disallow="pedestrian tram rail_urban rail rail_electric rail_fast ship" oneway="0" sidewalkWidth="2.00"/>

    <edge id=":10135200237_0" function="internal">
        <lane id=":10135200237_0_0" index="0" allow="pedestrian delivery bicycle" speed="3.65" length="4.67" shape="1337.09,1628.78 1338.33,1629.52 1338.77,1630.30 1338.41,1631.12 1337.25,1631.98"/>
    </edge>
    <edge id=":10135200238_0" function="internal">
        <lane id=":10135200238_0_0" index="0" allow="pedestrian delivery bicycle" speed="5.56" length="9.40" shape="1320.22,1635.90 1319.88,1626.50"/>
    </edge>
    <edge id=":10135200238_1" function="internal">
        <lane id=":10135200238_1_0" index="0" allow="pedestrian delivery bicycle" speed="5.56" length="10.16" shape="1320.22,1635.90 1320.52,1633.15 1321.63,1631.15 1323.56,1629.88 1326.31,1629.35"/>
    </edge>
    <edge id=":10135200238_2" function="internal">
        <lane id=":10135200238_2_0" index="0" allow="pedestrian delivery bicycle" speed="3.65" length="4.67" shape="1320.22,1635.90 1320.98,1634.67 1321.76,1634.24 1322.58,1634.61 1323.42,1635.78"/>
    </edge>
    <edge id=":10135200238_3" function="internal">
        <lane id=":10135200238_3_0" index="0" allow="pedestrian delivery bicycle" speed="5.09" length="5.06" shape="1326.48,1632.54 1325.10,1632.80 1324.13,1633.43 1323.57,1634.42 1323.42,1635.78"/>
    </edge>
    <edge id=":10135200238_4" function="internal">
        <lane id=":10135200238_4_0" index="0" allow="pedestrian delivery bicycle" speed="5.56" length="10.24" shape="1326.48,1632.54 1323.68,1632.29 1321.64,1631.20 1320.38,1629.27 1319.88,1626.50"/>
    </edge>
    <edge id=":10135200238_5" function="internal">
        <lane id=":10135200238_5_0" index="0" allow="pedestrian delivery bicycle" speed="3.65" length="4.67" shape="1326.48,1632.54 1325.24,1631.80 1324.80,1631.03 1325.15,1630.21 1326.31,1629.35"/>
    </edge>
    <edge id=":10135200238_6" function="internal">
        <lane id=":10135200238_6_0" index="0" allow="pedestrian delivery bicycle" speed="5.02" length="5.02" shape="1323.07,1626.39 1323.32,1627.74 1323.94,1628.69 1324.94,1629.22 1326.31,1629.35"/>
    </edge>
    <edge id=":10135200238_7" function="internal">
        <lane id=":10135200238_7_0" index="0" allow="pedestrian delivery bicycle" speed="5.56" length="9.40" shape="1323.07,1626.39 1323.42,1635.78"/>
    </edge>
    <edge id=":10135200238_8" function="internal">
        <lane id=":10135200238_8_0" index="0" allow="pedestrian delivery bicycle" speed="3.65" length="4.67" shape="1323.07,1626.39 1322.32,1627.61 1321.53,1628.04 1320.72,1627.67 1319.88,1626.50"/>
    </edge>
    <edge id=":10135200238_w0" function="walkingarea">
        <lane id=":10135200238_w0_0" index="0" allow="pedestrian" speed="2.78" length="6.88" width="3.20" shape="1318.62,1635.95 1325.02,1635.72 1325.16,1634.88 1325.38,1634.58 1325.68,1634.35 1326.07,1634.21 1326.56,1634.14 1326.23,1627.75 1325.39,1627.62 1325.09,1627.43 1324.87,1627.15 1324.73,1626.78 1324.67,1626.33 1318.28,1626.56"/>
    </edge>
    <edge id=":10135200239_0" function="internal">
        <lane id=":10135200239_0_0" index="0" allow="pedestrian delivery bicycle" speed="3.65" length="4.67" shape="1337.91,1645.06 1339.14,1645.81 1339.58,1646.59 1339.21,1647.41 1338.05,1648.26"/>
    </edge>
    <edge id=":10135200243_0" function="internal">
        <lane id=":10135200243_0_0" index="0" allow="delivery bicycle" speed="5.77" length="6.69" shape="1353.39,1621.91 1353.07,1619.67 1352.41,1618.09 1351.43,1617.15 1350.11,1616.86"/>
    </edge>
    <edge id=":10135200243_1" function="internal">
        <lane id=":10135200243_1_0" index="0" allow="delivery bicycle" speed="6.64" length="9.68" shape="1353.39,1621.91 1353.37,1618.27 1353.84,1615.65 1354.78,1614.06 1356.19,1613.49"/>
    </edge>
    <edge id=":10135200243_2" function="internal">
        <lane id=":10135200243_2_0" index="0" disallow="pedestrian tram rail_urban rail rail_electric rail_fast ship" speed="13.89" length="6.18" shape="1356.29,1616.66 1350.11,1616.86"/>
    </edge>
    <edge id=":10135200243_3" function="internal">
        <lane id=":10135200243_3_0" index="0" disallow="pedestrian tram rail_urban rail rail_electric rail_fast ship" speed="13.89" length="6.15" shape="1350.04,1613.66 1356.19,1613.49"/>
    </edge>
    <edge id=":10135200243_c0" function="crossing" crossingEdges="28021111#3 -28021111#3.20">
        <lane id=":10135200243_c0_0" index="0" allow="pedestrian" speed="2.78" length="6.39" width="4.00" shape="1354.15,1611.95 1354.35,1618.34"/>
    </edge>
    <edge id=":10135200243_w0" function="walkingarea">
        <lane id=":10135200243_w0_0" index="0" allow="pedestrian" speed="2.78" length="4.08" width="4.00" shape="1350.15,1618.45 1350.19,1620.45 1351.79,1622.01 1354.98,1621.81 1356.40,1620.26 1356.32,1618.26 1352.35,1618.40"/>
    </edge>
    <edge id=":10135200243_w1" function="walkingarea">
        <lane id=":10135200243_w1_0" index="0" allow="pedestrian" speed="2.78" length="4.21" width="4.00" shape="1352.15,1612.02 1356.15,1611.90 1356.09,1609.90 1349.96,1610.06 1350.00,1612.06"/>
    </edge>
    <edge id=":1027206094_0" function="internal">
        <lane id=":1027206094_0_0" index="0" disallow="pedestrian tram rail_urban rail rail_electric rail_fast ship" speed="6.08" length="7.69" shape="3221.72,1405.60 3219.72,1406.25 3217.99,1406.11 3216.52,1405.17 3215.32,1403.45"/>
    </edge>
    <edge id=":1027206094_1" function="internal">
        <lane id=":1027206094_1_0" index="0" disallow="pedestrian tram rail_urban rail rail_electric rail_fast ship" speed="3.90" length="2.56" shape="3218.18,1402.01 3218.58,1402.59 3219.07,1402.90 3219.64,1402.95 3220.31,1402.73"/>
    </edge>
    <edge id=":1027206109_0" function="internal">
        <lane id=":1027206109_0_0" index="0" disallow="pedestrian tram rail_urban rail rail_electric rail_fast ship" speed="13.89" length="14.44" shape="2890.38,1864.21 2889.70,1849.79"/>
    </edge>
    <edge id=":1027206109_1" function="internal">
        <lane id=":1027206109_1_0" index="0" disallow="pedestrian tram rail_urban rail rail_electric rail_fast ship" speed="8.49" length="3.85" shape="2890.38,1864.21 2890.78,1860.53 2890.85,1860.40"/>
    </edge>
    <edge id=":1027206109_2" function="internal">
        <lane id=":1027206109_2_0" index="0" disallow="pedestrian tram rail_urban rail rail_electric rail_fast ship" speed="3.65" length="1.44" shape="2890.38,1864.21 2891.13,1862.98"/>
    </edge>
    <edge id=":1027206109_9" function="internal">
        <lane id=":1027206109_9_0" index="0" disallow="pedestrian tram rail_urban rail rail_electric rail_fast ship" speed="8.49" length="10.57" shape="2890.85,1860.40 2892.34,1857.67 2895.05,1855.63 2898.92,1854.40"/>
    </edge>
    <edge id=":1027206109_10" function="internal">
        <lane id=":1027206109_10_0" index="0" disallow="pedestrian tram rail_urban rail rail_electric rail_fast ship" speed="3.65" length="3.23" shape="2891.13,1862.98 2891.91,1862.54 2892.73,1862.91 2893.58,1864.07"/>
    </edge>
    <edge id=":1027206109_3" function="internal">
        <lane id=":1027206109_3_0" index="0" disallow="pedestrian tram rail_urban rail rail_electric rail_fast ship" speed="7.09" length="9.76" shape="2899.50,1857.55 2896.82,1858.38 2894.94,1859.74 2893.86,1861.64 2893.58,1864.07"/>
    </edge>
    <edge id=":1027206109_4" function="internal">
        <lane id=":1027206109_4_0" index="0" disallow="pedestrian tram rail_urban rail rail_electric rail_fast ship" speed="7.78" length="14.72" shape="2899.50,1857.55 2895.39,1857.71 2892.39,1856.47 2890.49,1853.83 2889.70,1849.79"/>
    </edge>
    <edge id=":1027206109_5" function="internal">
        <lane id=":1027206109_5_0" index="0" disallow="pedestrian tram rail_urban rail rail_electric rail_fast ship" speed="3.65" length="4.67" shape="2899.50,1857.55 2898.17,1856.98 2897.64,1856.26 2897.88,1855.40 2898.92,1854.40"/>
    </edge>
    <edge id=":1027206109_6" function="internal">
        <lane id=":1027206109_6_0" index="0" disallow="pedestrian tram rail_urban rail rail_electric rail_fast ship" speed="6.24" length="9.05" shape="2892.90,1849.63 2893.38,1852.12 2894.55,1853.74 2896.39,1854.50 2898.92,1854.40"/>
    </edge>
    <edge id=":1027206109_7" function="internal">
        <lane id=":1027206109_7_0" index="0" disallow="pedestrian tram rail_urban rail rail_electric rail_fast ship" speed="13.89" length="14.45" shape="2892.90,1849.63 2893.58,1864.07"/>
    </edge>
    <edge id=":1027206109_8" function="internal">
        <lane id=":1027206109_8_0" index="0" disallow="pedestrian tram rail_urban rail rail_electric rail_fast ship" speed="3.65" length="1.44" shape="2892.90,1849.63 2892.16,1850.87"/>
    </edge>
    <edge id=":1027206109_11" function="internal">
        <lane id=":1027206109_11_0" index="0" disallow="pedestrian tram rail_urban rail rail_electric rail_fast ship" speed="3.65" length="3.23" shape="2892.16,1850.87 2891.38,1851.31 2890.56,1850.95 2889.70,1849.79"/>
    </edge>
    <edge id=":1027206118_0" function="internal">
        <lane id=":1027206118_0_0" index="0" disallow="pedestrian tram rail_urban rail rail_electric rail_fast ship" speed="7.25" length="7.94" shape="3128.15,1530.21 3127.07,1531.21 3126.38,1532.76 3126.10,1534.86 3126.21,1537.50"/>
    </edge>
    <edge id=":1027206118_1" function="internal">
        <lane id=":1027206118_1_0" index="0" disallow="pedestrian tram rail_urban rail rail_electric rail_fast ship" speed="8.39" length="6.28" shape="3122.91,1533.03 3126.17,1527.66"/>
    </edge>
    <edge id=":1027206118_2" function="internal">
        <lane id=":1027206118_2_0" index="0" disallow="pedestrian tram rail_urban rail rail_electric rail_fast ship" speed="6.30" length="5.94" shape="3122.91,1533.03 3124.20,1533.61 3125.19,1534.56 3125.86,1535.85 3126.21,1537.50"/>
    </edge>
    <edge id=":1027206134_0" function="internal">
        <lane id=":1027206134_0_0" index="0" disallow="pedestrian tram rail_urban rail rail_electric rail_fast ship" speed="13.89" length="7.09" shape="3116.77,1546.41 3114.82,1545.70 3113.40,1545.47 3111.93,1545.48 3109.82,1545.46"/>
    </edge>
    <edge id=":1027206134_1" function="internal">
        <lane id=":1027206134_1_0" index="0" disallow="pedestrian tram rail_urban rail rail_electric rail_fast ship" speed="7.71" length="6.66" shape="3116.77,1546.41 3115.01,1545.49 3113.66,1544.44 3112.71,1543.24 3112.18,1541.90"/>
    </edge>
    <edge id=":1027206152_0" function="internal">
        <lane id=":1027206152_0_0" index="0" disallow="pedestrian tram rail_urban rail rail_electric rail_fast ship" speed="12.50" length="4.48" shape="2902.48,1528.50 2898.13,1529.57"/>
    </edge>
    <edge id=":1027206152_1" function="internal">
        <lane id=":1027206152_1_0" index="0" disallow="pedestrian tram rail_urban rail rail_electric rail_fast ship" speed="13.89" length="5.89" shape="2895.62,1527.60 2896.85,1526.53 2898.02,1526.29 2899.34,1526.21 2901.00,1525.67"/>
    </edge>
    <edge id=":1027206153_0" function="internal">
        <lane id=":1027206153_0_0" index="0" disallow="pedestrian tram rail_urban rail rail_electric rail_fast ship" speed="13.89" length="15.09" shape="3287.11,1546.38 3272.02,1546.30"/>
    </edge>
    <edge id=":1027206153_1" function="internal">
        <lane id=":1027206153_1_0" index="0" disallow="pedestrian tram rail_urban rail rail_electric rail_fast ship" speed="10.11" length="3.58" shape="3287.11,1546.38 3283.77,1545.80 3283.60,1545.70"/>
    </edge>
    <edge id=":1027206153_2" function="internal">
        <lane id=":1027206153_2_0" index="0" disallow="pedestrian tram rail_urban rail rail_electric rail_fast ship" speed="3.65" length="1.44" shape="3287.11,1546.38 3285.91,1545.58"/>
    </edge>
    <edge id=":1027206153_9" function="internal">
        <lane id=":1027206153_9_0" index="0" disallow="pedestrian tram rail_urban rail rail_electric rail_fast ship" speed="10.11" length="11.79" shape="3283.60,1545.70 3280.77,1544.07 3278.11,1541.22 3275.79,1537.22"/>
    </edge>
    <edge id=":1027206153_10" function="internal">
        <lane id=":1027206153_10_0" index="0" disallow="pedestrian tram rail_urban rail rail_electric rail_fast ship" speed="3.65" length="3.23" shape="3285.91,1545.58 3285.52,1544.77 3285.92,1543.98 3287.13,1543.18"/>
    </edge>
    <edge id=":1027206153_3" function="internal">
        <lane id=":1027206153_3_0" index="0" disallow="pedestrian tram rail_urban rail rail_electric rail_fast ship" speed="8.91" length="11.77" shape="3278.69,1535.86 3280.50,1539.05 3282.51,1541.34 3284.72,1542.71 3287.13,1543.18"/>
    </edge>
    <edge id=":1027206153_4" function="internal">
        <lane id=":1027206153_4_0" index="0" disallow="pedestrian tram rail_urban rail rail_electric rail_fast ship" speed="7.45" length="16.28" shape="3278.69,1535.86 3280.12,1540.45 3279.49,1543.72 3276.79,1545.67 3272.02,1546.30"/>
    </edge>
    <edge id=":1027206153_5" function="internal">
        <lane id=":1027206153_5_0" index="0" disallow="pedestrian tram rail_urban rail rail_electric rail_fast ship" speed="3.65" length="4.67" shape="3278.69,1535.86 3278.47,1537.29 3277.92,1537.99 3277.03,1537.97 3275.79,1537.22"/>
    </edge>
    <edge id=":1027206153_6" function="internal">
        <lane id=":1027206153_6_0" index="0" disallow="pedestrian tram rail_urban rail rail_electric rail_fast ship" speed="5.76" length="9.17" shape="3272.04,1543.10 3274.72,1542.75 3276.24,1541.65 3276.60,1539.81 3275.79,1537.22"/>
    </edge>
    <edge id=":1027206153_7" function="internal">
        <lane id=":1027206153_7_0" index="0" disallow="pedestrian tram rail_urban rail rail_electric rail_fast ship" speed="13.89" length="15.09" shape="3272.04,1543.10 3287.13,1543.18"/>
    </edge>
    <edge id=":1027206153_8" function="internal">
        <lane id=":1027206153_8_0" index="0" disallow="pedestrian tram rail_urban rail rail_electric rail_fast ship" speed="3.65" length="1.44" shape="3272.04,1543.10 3273.23,1543.91"/>
    </edge>
    <edge id=":1027206153_11" function="internal">
        <lane id=":1027206153_11_0" index="0" disallow="pedestrian tram rail_urban rail rail_electric rail_fast ship" speed="3.65" length="3.23" shape="3273.23,1543.91 3273.63,1544.71 3273.23,1545.51 3272.02,1546.30"/>
    </edge>
    <edge id=":1027206161_0" function="internal">
        <lane id=":1027206161_0_0" index="0" disallow="pedestrian tram rail_urban rail rail_electric rail_fast ship" speed="3.65" length="4.67" shape="3508.48,934.02 3509.83,934.54 3510.39,935.23 3510.18,936.10 3509.18,937.14"/>
    </edge>
    <edge id=":1027206180_0" function="internal">
        <lane id=":1027206180_0_0" index="0" disallow="pedestrian tram rail_urban rail rail_electric rail_fast ship" speed="13.89" length="14.77" shape="3292.84,1370.88 3279.52,1377.28"/>
    </edge>
    <edge id=":1027206180_1" function="internal">
        <lane id=":1027206180_1_0" index="0" disallow="pedestrian tram rail_urban rail rail_electric rail_fast ship" speed="8.08" length="4.21" shape="3292.84,1370.88 3289.16,1372.12 3288.83,1372.10"/>
    </edge>
    <edge id=":1027206180_2" function="internal">
        <lane id=":1027206180_2_0" index="0" disallow="pedestrian tram rail_urban rail rail_electric rail_fast ship" speed="3.65" length="1.44" shape="3292.84,1370.88 3291.41,1370.71"/>
    </edge>
    <edge id=":1027206180_9" function="internal">
        <lane id=":1027206180_9_0" index="0" disallow="pedestrian tram rail_urban rail rail_electric rail_fast ship" speed="8.08" length="10.20" shape="3288.83,1372.10 3285.94,1371.87 3283.17,1370.11 3280.85,1366.84"/>
    </edge>
    <edge id=":1027206180_10" function="internal">
        <lane id=":1027206180_10_0" index="0" disallow="pedestrian tram rail_urban rail rail_electric rail_fast ship" speed="3.65" length="3.23" shape="3291.41,1370.71 3290.68,1370.18 3290.68,1369.29 3291.38,1368.03"/>
    </edge>
    <edge id=":1027206180_3" function="internal">
        <lane id=":1027206180_3_0" index="0" disallow="pedestrian tram rail_urban rail rail_electric rail_fast ship" speed="6.60" length="9.27" shape="3283.68,1365.36 3285.18,1367.48 3286.97,1368.64 3289.03,1368.82 3291.38,1368.03"/>
    </edge>
    <edge id=":1027206180_4" function="internal">
        <lane id=":1027206180_4_0" index="0" disallow="pedestrian tram rail_urban rail rail_electric rail_fast ship" speed="8.01" length="14.48" shape="3283.68,1365.36 3284.96,1369.06 3284.69,1372.28 3282.88,1375.02 3279.52,1377.28"/>
    </edge>
    <edge id=":1027206180_5" function="internal">
        <lane id=":1027206180_5_0" index="0" disallow="pedestrian tram rail_urban rail rail_electric rail_fast ship" speed="3.65" length="4.67" shape="3283.68,1365.36 3283.53,1366.79 3283.00,1367.52 3282.11,1367.53 3280.85,1366.84"/>
    </edge>
    <edge id=":1027206180_6" function="internal">
        <lane id=":1027206180_6_0" index="0" disallow="pedestrian tram rail_urban rail rail_electric rail_fast ship" speed="6.47" length="9.07" shape="3278.28,1374.32 3280.38,1372.91 3281.50,1371.19 3281.66,1369.17 3280.85,1366.84"/>
    </edge>
    <edge id=":1027206180_7" function="internal">
        <lane id=":1027206180_7_0" index="0" disallow="pedestrian tram rail_urban rail rail_electric rail_fast ship" speed="13.89" length="14.53" shape="3278.28,1374.32 3291.38,1368.03"/>
    </edge>
    <edge id=":1027206180_8" function="internal">
        <lane id=":1027206180_8_0" index="0" disallow="pedestrian tram rail_urban rail rail_electric rail_fast ship" speed="3.65" length="1.44" shape="3278.28,1374.32 3279.70,1374.60"/>
    </edge>
    <edge id=":1027206180_11" function="internal">
        <lane id=":1027206180_11_0" index="0" disallow="pedestrian tram rail_urban rail rail_electric rail_fast ship" speed="3.65" length="3.24" shape="3279.70,1374.60 3280.38,1375.18 3280.32,1376.08 3279.52,1377.28"/>
    </edge>
    <edge id=":1027206224_0" function="internal">
        <lane id=":1027206224_0_0" index="0" disallow="pedestrian tram rail_urban rail rail_electric rail_fast ship" speed="3.65" length="4.67" shape="3246.28,1632.77 3247.69,1633.08 3248.35,1633.68 3248.27,1634.57 3247.44,1635.75"/>
    </edge>
    <edge id=":1027206267_0" function="internal">
        <lane id=":1027206267_0_0" index="0" disallow="pedestrian tram rail_urban rail rail_electric rail_fast ship" speed="6.51" length="9.08" shape="2964.59,1550.33 2964.21,1547.86 2963.14,1546.10 2961.38,1545.07 2958.92,1544.76"/>
    </edge>
    <edge id=":1027206267_1" function="internal">
        <lane id=":1027206267_1_0" index="0" disallow="pedestrian tram rail_urban rail rail_electric rail_fast ship" speed="7.96" length="14.29" shape="2964.59,1550.33 2965.11,1546.43 2966.75,1543.67 2969.52,1542.04 2973.42,1541.54"/>
    </edge>
    <edge id=":1027206267_2" function="internal">
        <lane id=":1027206267_2_0" index="0" disallow="pedestrian tram rail_urban rail rail_electric rail_fast ship" speed="3.65" length="4.67" shape="2964.59,1550.33 2965.38,1549.12 2966.17,1548.71 2966.98,1549.11 2967.79,1550.30"/>
    </edge>
    <edge id=":1027206267_3" function="internal">
        <lane id=":1027206267_3_0" index="0" disallow="pedestrian tram rail_urban rail rail_electric rail_fast ship" speed="6.45" length="9.03" shape="2973.37,1544.74 2970.91,1545.05 2969.15,1546.09 2968.12,1547.83 2967.79,1550.30"/>
    </edge>
    <edge id=":1027206267_4" function="internal">
        <lane id=":1027206267_4_0" index="0" disallow="pedestrian tram rail_urban rail rail_electric rail_fast ship" speed="13.89" length="14.45" shape="2973.37,1544.74 2958.92,1544.76"/>
    </edge>
    <edge id=":1027206267_5" function="internal">
        <lane id=":1027206267_5_0" index="0" disallow="pedestrian tram rail_urban rail rail_electric rail_fast ship" speed="3.65" length="1.44" shape="2973.37,1544.74 2972.18,1543.92"/>
    </edge>
    <edge id=":1027206267_9" function="internal">
        <lane id=":1027206267_9_0" index="0" disallow="pedestrian tram rail_urban rail rail_electric rail_fast ship" speed="3.65" length="3.23" shape="2972.18,1543.92 2971.79,1543.12 2972.21,1542.32 2973.42,1541.54"/>
    </edge>
    <edge id=":1027206267_6" function="internal">
        <lane id=":1027206267_6_0" index="0" disallow="pedestrian tram rail_urban rail rail_electric rail_fast ship" speed="13.89" length="14.56" shape="2958.86,1541.56 2973.42,1541.54"/>
    </edge>
    <edge id=":1027206267_7" function="internal">
        <lane id=":1027206267_7_0" index="0" disallow="pedestrian tram rail_urban rail rail_electric rail_fast ship" speed="8.00" length="4.19" shape="2958.86,1541.56 2962.73,1542.05 2962.98,1542.19"/>
    </edge>
    <edge id=":1027206267_8" function="internal">
        <lane id=":1027206267_8_0" index="0" disallow="pedestrian tram rail_urban rail rail_electric rail_fast ship" speed="3.65" length="1.44" shape="2958.86,1541.56 2960.07,1542.34"/>
    </edge>
    <edge id=":1027206267_10" function="internal">
        <lane id=":1027206267_10_0" index="0" disallow="pedestrian tram rail_urban rail rail_electric rail_fast ship" speed="8.00" length="10.08" shape="2962.98,1542.19 2965.51,1543.67 2967.20,1546.41 2967.79,1550.30"/>
    </edge>
    <edge id=":1027206267_11" function="internal">
        <lane id=":1027206267_11_0" index="0" disallow="pedestrian tram rail_urban rail rail_electric rail_fast ship" speed="3.65" length="3.23" shape="2960.07,1542.34 2960.49,1543.13 2960.10,1543.94 2958.92,1544.76"/>
    </edge>
    <edge id=":1027206277_0" function="internal">
        <lane id=":1027206277_0_0" index="0" disallow="pedestrian tram rail_urban rail rail_electric rail_fast ship" speed="6.52" length="9.08" shape="3204.53,1551.59 3204.19,1549.12 3203.15,1547.36 3201.40,1546.29 3198.94,1545.92"/>
    </edge>
    <edge id=":1027206277_1" function="internal">
        <lane id=":1027206277_1_0" index="0" disallow="pedestrian tram rail_urban rail rail_electric rail_fast ship" speed="8.01" length="14.21" shape="3204.53,1551.59 3205.10,1547.73 3206.76,1544.97 3209.51,1543.33 3213.36,1542.80"/>
    </edge>
    <edge id=":1027206277_2" function="internal">
        <lane id=":1027206277_2_0" index="0" disallow="pedestrian tram rail_urban rail rail_electric rail_fast ship" speed="3.65" length="4.67" shape="3204.53,1551.59 3205.33,1550.39 3206.12,1549.99 3206.93,1550.39 3207.73,1551.58"/>
    </edge>
    <edge id=":1027206277_3" function="internal">
        <lane id=":1027206277_3_0" index="0" disallow="pedestrian tram rail_urban rail rail_electric rail_fast ship" speed="6.51" length="9.03" shape="3213.34,1546.00 3210.90,1546.34 3209.15,1547.38 3208.09,1549.13 3207.73,1551.58"/>
    </edge>
    <edge id=":1027206277_4" function="internal">
        <lane id=":1027206277_4_0" index="0" disallow="pedestrian tram rail_urban rail rail_electric rail_fast ship" speed="13.89" length="14.40" shape="3213.34,1546.00 3198.94,1545.92"/>
    </edge>
    <edge id=":1027206277_5" function="internal">
        <lane id=":1027206277_5_0" index="0" disallow="pedestrian tram rail_urban rail rail_electric rail_fast ship" speed="3.65" length="1.44" shape="3213.34,1546.00 3212.14,1545.19"/>
    </edge>
    <edge id=":1027206277_9" function="internal">
        <lane id=":1027206277_9_0" index="0" disallow="pedestrian tram rail_urban rail rail_electric rail_fast ship" speed="3.65" length="3.23" shape="3212.14,1545.19 3211.75,1544.39 3212.15,1543.59 3213.36,1542.80"/>
    </edge>
    <edge id=":1027206277_6" function="internal">
        <lane id=":1027206277_6_0" index="0" disallow="pedestrian tram rail_urban rail rail_electric rail_fast ship" speed="13.89" length="14.40" shape="3198.96,1542.72 3213.36,1542.80"/>
    </edge>
    <edge id=":1027206277_7" function="internal">
        <lane id=":1027206277_7_0" index="0" disallow="pedestrian tram rail_urban rail rail_electric rail_fast ship" speed="8.01" length="4.07" shape="3198.96,1542.72 3202.81,1543.29 3202.96,1543.39"/>
    </edge>
    <edge id=":1027206277_8" function="internal">
        <lane id=":1027206277_8_0" index="0" disallow="pedestrian tram rail_urban rail rail_electric rail_fast ship" speed="3.65" length="1.44" shape="3198.96,1542.72 3200.15,1543.53"/>
    </edge>
    <edge id=":1027206277_10" function="internal">
        <lane id=":1027206277_10_0" index="0" disallow="pedestrian tram rail_urban rail rail_electric rail_fast ship" speed="8.01" length="10.15" shape="3202.96,1543.39 3205.56,1544.96 3207.20,1547.72 3207.73,1551.58"/>
    </edge>
    <edge id=":1027206277_11" function="internal">
        <lane id=":1027206277_11_0" index="0" disallow="pedestrian tram rail_urban rail rail_electric rail_fast ship" speed="3.65" length="3.23" shape="3200.15,1543.53 3200.55,1544.33 3200.14,1545.13 3198.94,1545.92"/>
    </edge>
    <edge id=":1027206281_0" function="internal">
        <lane id=":1027206281_0_0" index="0" disallow="pedestrian tram rail_urban rail rail_electric rail_fast ship" speed="10.81" length="10.43" shape="3156.76,1420.40 3153.83,1421.55 3151.49,1422.14 3149.70,1423.17 3148.39,1425.65"/>
    </edge>
    <edge id=":1027206281_1" function="internal">
        <lane id=":1027206281_1_0" index="0" disallow="pedestrian tram rail_urban rail rail_electric rail_fast ship" speed="7.41" length="15.79" shape="3156.76,1420.40 3153.51,1421.28 3151.02,1419.99 3149.29,1416.51 3148.32,1410.87"/>
    </edge>
    <edge id=":1027206281_2" function="internal">
        <lane id=":1027206281_2_0" index="0" disallow="pedestrian tram rail_urban rail rail_electric rail_fast ship" speed="3.79" length="5.22" shape="3156.76,1420.40 3155.39,1419.56 3154.91,1418.68 3155.32,1417.77 3156.63,1416.83"/>
    </edge>
    <edge id=":1027206281_3" function="internal">