<?xml version="1.0" encoding="UTF-8"?>

<!-- generated on 2023-06-27 11:52:17.662268 by randomTrips.py v1_17_0+1016-e92e5b95acc
<configuration>
    <allow-fringe.min-length value="1000.0"/>
    <fringe-factor value="5"/>
    <fringe-start-attributes value="departSpeed=&quot;max&quot;"/>
    <insertion-density value="12.0"/>
    <lanes value="True"/>
    <min-distance.fringe value="10.0"/>
    <min-distance value="300.0"/>
    <net-file value="osm.net.xml.gz"/>
    <remove-loops value="True"/>
    <route-file value="osm.passenger.rou.xml"/>
    <trip-attributes value="departLane=&quot;best&quot;"/>
    <output-trip-file value="osm.passenger.trips.xml"/>
    <prefix value="veh"/>
    <validate value="True"/>
    <vehicle-class value="passenger"/>
    <via-edge-types value="highway.motorway,highway.motorway_link,highway.trunk_link,highway.primary_link,highway.secondary_link,highway.tertiary_link"/>
</configuration>
-->

<!-- generated on 2023-06-27 11:52:17 by Eclipse SUMO duarouter Version v1_17_0+1016-e92e5b95acc
<configuration xmlns:xsi="http://www.w3.org/2001/XMLSchema-instance" xsi:noNamespaceSchemaLocation="http://sumo.dlr.de/xsd/duarouterConfiguration.xsd">

    <input>
        <net-file value="osm.net.xml.gz"/>
        <route-files value="osm.passenger.trips.xml"/>
    </input>

    <output>
        <output-file value="osm.passenger.rou.xml"/>
        <alternatives-output value="NUL"/>
    </output>

    <processing>
        <remove-loops value="true"/>
    </processing>

    <time>
        <begin value="0.0"/>
        <end value="3600.0"/>
    </time>

    <report>
        <no-warnings value="true"/>
        <ignore-errors value="true"/>
        <no-step-log value="true"/>
    </report>

</configuration>
-->

<routes xmlns:xsi="http://www.w3.org/2001/XMLSchema-instance" xsi:noNamespaceSchemaLocation="http://sumo.dlr.de/xsd/routes_file.xsd">
    <vType id="veh_passenger" vClass="passenger"/>
    <vehicle id="veh0" type="veh_passenger" depart="0.00" departLane="best" departSpeed="max">
        <route edges="241481353 241481354#1 -102077254#0 22492934#0 22492934#1 102077268#4 -102077272#2 -102077272#1 -102077272#0 102077257#2 102077257#3 102077257#4 -23031244#3 -23031244#2 -23031244#1 -23031244#0 559475282#0 559475282#1 559475282#2 559475282#3 559475282#4 E29 22650364#3 22650364#4 22650364#5 22650368#0 22650368#1 356792291#4 356792291#5 356792291#6 356792291#1 923329653 100380474#0 -102145981#4"/>
    </vehicle>
    <vehicle id="veh1" type="veh_passenger" depart="2.89" departLane="best">
        <route edges="561322877#2 561322877#3 44419469 44419470#5 44419470#7 23748847#1 23748847#2 23748877#0 23748877#1 23748877#2 23748877#3 23748877#4 23748860#1 44419760#0 44419760#2 44419760#4 44419760#5"/>
    </vehicle>
    <vehicle id="veh2" type="veh_passenger" depart="5.78" departLane="best">
        <route edges="-292643664#5 -292643664#4 -620127951#0 -620127952#1 -620127952#0 -620127949#1 -620127949#0 -620127950#0 -28038025 24520290#2 24520408#0 24520408#1 24520408#2 24520408#3 24520408#4 22650420#5 22650420#6 22650420#7 23749340 254360506#1 254360506#2 23749315#6 23749315#7 23749315#8 23749315#9.15 164945645 -28021111#5 -28021111#5.14 -28021111#3.20 -28021111#2"/>
    </vehicle>
    <vehicle id="veh3" type="veh_passenger" depart="8.66" departLane="best">
        <route edges="83674772 620120798#6 620120795#1 620120795#2 -916760971#4 -916760971#2 44419470#5 44419470#7 23748847#1 23748847#2 23748847#3 -24526908#6 -24526908#5 -24526908#4 -24526908#3 -24526908#2 -24526908#0 -620120791 24520290#1 24520290#2 24520408#0 24520408#1 85224612#0 85224612#1 85224612#2 160615651#0"/>
    </vehicle>
    <vehicle id="veh4" type="veh_passenger" depart="11.55" departLane="best">
        <route edges="102145994#1 102145994#2 102145994#3 -44420735#1 -44420735#0 -104493151#5 -104493151#3 -104493151#2 -104493151#1 -104493151#0 104493159 44420553#5 44420553#6 44420553#0 104493134#0 104493134#1 -157989544 157989541 157989542#5 157989540 -620127938#5 -620127938#4 -620127938#3 -620127938#2 -620127938#1 -620127938#0 -620127940#0 -391891766#7 -391891766#6 -391891766#5 -391891766#4 -391891766#3 -391891766#2 -391891766#1 -391891766#0 -103670697#4 -103670697#3 -103670697#2 -103670697#1 -103670697#0 -807805157#2 -807805157#1 -807805157#0 E35 292643665#3 292643665#4 22650412#5 22650412#6 22650412#7 28000506#0 -190876198 -1136268465 -102165688#1"/>
    </vehicle>
    <vehicle id="veh5" type="veh_passenger" depart="14.44" departLane="best" departSpeed="max">
        <route edges="-28038008 -28038007#0 -28037992#0 -620127952#0 -620127949#1 -620127949#0 -620127950#0 -28038025 24520290#2 24520408#0 24520408#1 24520408#2 24520408#3 24520408#4 22650420#5 22650420#6 22650420#7 22650420#8 22650420#1 22650446#0 22650446#1 542209564#7 542209564#8 542209564#1 542209564#2 542209564#3 542209564#4 542209564#5 542209565 136182032#1"/>
    </vehicle>
    <vehicle id="veh6" type="veh_passenger" depart="17.33" departLane="best">
        <route edges="102077272#1 102077272#2 102077268#1 -102146449 102145994#0 102145994#1 102145994#2 102145994#3 -44420735#1 -44420735#0 -104493151#5 -104493151#3 -104493151#2 -104493151#1 -104493151#0 104493159 44420553#5 44420553#6 44420553#0 104493134#0 104493134#1 -157989544 157989541 157989542#5 157989542#6 157989542#1 157989173#0 157989173#1 157989173#2 157986566#5 157986566#6 157986566#1 157989171 -28866079#1 -28866079#0 23748860#3 23748860#4 -23748877#4 -23748877#3 -23748877#2 -23748877#1 -23748877#0 23748847#3 23748847#4 -44419470#7 -44419470#6 -44419470#3 -561322877#3 -561322877#2 -561322877#1 -561322876#1 -561322876#0 -1002022807 -1002022809 -1002022805 -290304847"/>
    </vehicle>
    <vehicle id="veh7" type="veh_passenger" depart="20.22" departLane="best" departSpeed="max">
        <route edges="-28038008 -28038007#0 -28037992#0 620127952#1 620127951#0 -292643664#0 -620127946#2 -620127946#0 -620127948#1 292643665#0 E34 E33 292643665#3 292643665#4 22650412#5 22650417#0 22650417#1 22650417#2 22650417#3"/>
    </vehicle>
    <vehicle id="veh8" type="veh_passenger" depart="23.11" departLane="best">
        <route edges="570426101#2 570426101#3 570426101#4 570426100#3 22674672 591402342#0 591402342#1 689277290#0 689277290#1 689277281#5 689277281#6 689277281#7 689277281#8 689277281#9 689277285#0 689277285#1 689277285#2 1024920556 881567589 666132796 22468300#6 22468300#7 102164651 -102164655 102165315 102165317#2 102165317#3 102165317#4 102165317#5 102164664 -102165319 -356789687 E44 -E43 -717380723#10 -717380723#9 -717380723#8 -717380723#7 -717380723#6 -717380723#5 -717380723#4 -717380723#3 -717380723#2 -717380723#1 -717380723#0 -997771259#1 -997771259#0 -100101558#4 -100101558#3 -100101558#2 -100101558#0 -88439554 -100132095#1"/>
    </vehicle>
    <vehicle id="veh12" type="veh_passenger" depart="34.66" departLane="best" departSpeed="max">
        <route edges="-109868571#1 228995664 -620127942 -103670697#4 -103670697#3 -103670697#2 -103670697#1 -103670697#0 -807805157#2 -807805157#1 -807805157#0 E35 292643665#3 292643665#4 22650412#5 22650412#6 22650412#7 22650412#0 22650412#1 22650422#0 22650422#1 22650422#2 22650422#3 22650422#4 22650420#7 23749340 254360506#1 254360506#2 23749315#6 23749315#7 23749315#8 23749315#9.15 164945645 -28021111#5 -28021111#5.14 -28021111#3.20 -28021111#2 -28021111#1 24526883#0 24526883#1 174897325#0 174897325#2 254362790#0 E39 1107701854#2 1107701854#4 -174897333#6 -174897333#5 -174897333#4 -174897333#3 -174897333#2 -174897333#1 -174897333#0"/>
    </vehicle>
    <vehicle id="veh13" type="veh_passenger" depart="37.55" departLane="best">
        <route edges="717380719#0 717380719#1 717380719#2 717380719#3 717380719#4 717380719#5 717380719#6 -342586722#1 -342586722#0 E42 -E44 356789687 102165316 102165313 102165317#0 102164659 102164655 102165318 22468300#9 22468300#10 22468300#1 22468300#2 22468300#3 22468300#4 22468241 881567588 689277282 881567590#0 881567590#1 689277281#1 689277281#2 689277281#3 689277289#0 689277289#1 -591402342#1 -591402342#0 -22674672 22674680#0 22674680#5 22674680#5.197"/>
    </vehicle>
    <vehicle id="veh15" type="veh_passenger" depart="43.32" departLane="best">
        <route edges="174897333#2 174897333#3 174897333#4 174897333#5 174897333#6 1107701849 1107701848.22 1107701846 1107701845 28021059#1 1107701841 1107701839#0 1107701839#1 563359083 174897340 1107701836 28021111#1 28021111#1.61 28021111#2 28021111#3 28021111#5 28021111#5.27 570426792 23749315#2 23749315#3 23749315#4 23749363#0 23749363#1 23749363#3 23749363#4 22650420#1 22650420#2 22650420#3 22650420#4 22650420#5 22650432 254360502#1 254360502#2 254360502#3 22650412#3 22650412#4 22650412#5 22650417#0 22650417#1 22650417#2 22650417#3 22650417#4 23749113#5 23749079#0 23749079#1 23749079#1.237 22650375#3 44420537#0 44420537#1 44420537#2 923157465#1 44420520#1 44420520#2 44420520#3 44420520#4 44420520#5 525594768#0 525594768#1 44420691#0 44420691#1 44420691#2 923329650 99885096#0 99885096#1 99885096#2 99885096#3 -102146448#1 -102146448#0 102146449 102077268#2 102067748#0 102067748#1 102077254#0 102077254#1 102077254#2 100965609#0 -99751844#1 -99751844#0"/>
    </vehicle>
    <vehicle id="veh16" type="veh_passenger" depart="46.21" departLane="best">
        <route edges="-99885096#5 -99885096#3 -99885096#2 -99885096#1 -99885096#0 -923329650 -44420691#2 -44420691#1 -44420691#0 44420707#0 44420707#1 44420520#7 44420520#8 44420520#1 44420681#0 44420681#1 -44420660#1 -44420660#0 -620127942 -103670697#4 -103670697#3 -103670697#2 -103670697#1 -103670697#0 -807805157#2 -807805157#1 -807805157#0 E35 292643665#3 292643665#4 22650412#5 22650412#6 22650412#7 28000506#0 -190876198 -1136268465 -102165688#1 -102165688#0 -619881884 -102164657 E12 102165317#5 102165317#6 102165317#0 102164659 102164655 102165318 22468300#9 22468300#10 22468300#1 22468300#2 22468300#3 22468300#4 22468241"/>
    </vehicle>
    <vehicle id="veh17" type="veh_passenger" depart="49.10" departLane="best">
        <route edges="620127940#1 620127938#1 620127938#2 620127938#3 620127938#4 620127938#5 159229373#1 157989542#1 157989173#0 157989173#1 157989173#2 157986566#5 157986566#6 157986566#1 157989171 -28866079#1 -28866079#0 23748860#3 23748860#4 -23748877#4 -23748877#3 -23748877#2 -23748877#1 -23748877#0 23748847#3 23748847#4 -44419470#7 -44419470#6 -44419470#3 -561322877#3 -561322877#2 -561322877#1 -561322876#1 -561322876#0 -1002022807 44419396#0 44419396#1 -23748761#5"/>
    </vehicle>
    <vehicle id="veh18" type="veh_passenger" depart="51.99" departLane="best">
        <route edges="717380723#7 717380723#8 717380723#9 717380723#10 E43 -E44 356789687 102165316 102165313 102165317#0 102165317#1 102165317#2 102165317#3 E13 102164657 619881884 102165688#0 102165688#1 1136268465 190876198 28000507#1 22650412#1 22650412#2 22650412#3 22650412#4 22650412#5 22650417#0 22650417#1 22650417#2 22650417#3 22650417#4 23749113#5 23749079#0 23749079#1 23749079#1.237 22650375#3 22650375#4 22650375#5 22650375#6 22650375#7 22650375#1 22650414#0"/>
    </vehicle>
    <vehicle id="veh19" type="veh_passenger" depart="54.88" departLane="best">
        <route edges="28027589#0 28027589#1 28027589#2 28027589#3 28027589#4 28027589#6 -83674767#5 620120798#0 620120795#1 620120795#2 -916760971#4 -916760971#2 44419470#5 44419470#7 23748847#1 23748847#2 23748877#0 23748877#1 23748877#2 23748877#3 23748877#4 23748860#1 23748860#2 28866079#0 28866079#1 157989177 157986566#3 157989175#0 157989175#1 157989175#2 157989175#3 157989542#3 157989543#0 157989543#1 157989544 104493143#0 104493143#1 44420553#2 44420553#3 44420541 104493151#0 104493151#1 104493151#2 104493151#3 104493118#0 104493118#1 104493121#3"/>
    </vehicle>
    <vehicle id="veh20" type="veh_passenger" depart="57.77" departLane="best">
        <route edges="-292643664#11 -292643664#10.7 -292643664#9 -292643664#7 -292643664#5 -292643664#4 -292643664#0 -620127946#2 -620127946#0 -620127948#1 292643665#0 E32 807805157#0 807805157#1 807805157#2"/>
    </vehicle>
    <vehicle id="veh21" type="veh_passenger" depart="60.65" departLane="best">
        <route edges="157984988#1 157984988#2 157984988#3 316442932 228894136#0 228894136#1 105467444#0 105467444#1 105467444#2 105467444#3 105467444#4 -292643664#7 -292643664#5 -292643664#4 -292643664#0 -620127946#2 -620127946#0 -620127948#1 292643665#0 E34 E33 292643665#3 292643665#4 22650412#5 22650412#6 22650412#7 28000506#0 -190876198 -1136268465 -102165688#1 -102165688#0 -619881884 -102164657 E12 102165317#5 102164664 -102165319 -356789687 E44 -E42 342586722#0 342586722#1 -717380719#6 -717380719#5"/>
    </vehicle>
    <vehicle id="veh22" type="veh_passenger" depart="63.54" departLane="best">
        <route edges="-923329650 -44420691#2 -44420691#1 -44420691#0 44420707#0 44420707#1 44420520#7 44420520#8 44420520#1 44420681#0 44420681#1 -44420660#1 -44420660#0 -620127942 -103670697#4 -103670697#3 -103670697#2 -103670697#1 -103670697#0 -807805157#2 -807805157#1 -807805157#0 E35 292643665#3 292643665#4 22650412#5 22650412#6 22650412#7 22650412#0 22650412#1 22650422#0 22650422#1 22650422#2 22650422#3 22650422#4 22650420#7 23749340 254360506#1 254360506#2 23749315#6 23749315#7 23749315#8 23749315#9.15 164945645 -28021111#5 -28021111#5.14 -28021111#3.20 -28021111#2 -28021111#1 24526883#0 24526883#1 174897325#0 174897325#2 254362790#0 E39 1107701854#2 1107701854#4 -174897333#6 -34779710#2 -34779710#1"/>
    </vehicle>
    <vehicle id="veh23" type="veh_passenger" depart="66.43" departLane="best">
        <route edges="51167745#6 51167745#7 907839357#0 83701784 -561322877#1 -561322876#1 -561322876#0 -1002022807 44419396#0 44419396#1 -23748761#5 -23748761#4 570426100#3 22674672 591402342#0 591402342#1 689277290#0 689277290#1 689277281#5 689277281#6 689277281#7 689277281#8 689277281#9 689277285#0 689277285#1 689277285#2 1024920556 881567589 666132796 22468300#6 22468300#7 102164651 -102164655 102165315 102165317#2 102165317#3 102165317#4 102165317#5 102164664 -102165319 -356789687 E44 -E43 -717380723#10 -717380723#9 -717380723#8 -717380723#7 -717380723#6 -717380723#5 -717380723#4 -717380723#3 -717380723#2 -717380723#1 -717380723#0 -997771259#1 -997771259#0 100101564 88439558#0 88439558#1"/>
    </vehicle>
    <vehicle id="veh24" type="veh_passenger" depart="69.32" departLane="best">
        <route edges="24526883#1 174897325#0 174897325#2 174897324 1107701839#0 1107701839#1 563359083 174897340 1107701836 28021111#1 28021111#1.61 28021111#2 28021111#3 28021111#5 28021111#5.27 570426792 23749315#2 23749315#3 23749315#4 23749363#0 23749363#1 23749363#3 23749363#4 22650420#1 22650420#2 22650420#3 24520391 254360505#0 254360505#1 254360505#2 254360505#3 254360505#4 24520290#4 24520290#5 24520290#6 24520290#1 28038025 620127950#0 620127950#1 620127949#1 620127952#0 620127952#1 620127951#0 292643664#4 292643664#5 292643664#7 -105467444#4 -105467444#3 -105467444#2 -105467444#1 -105467444#0 228894136#2"/>
    </vehicle>
    <vehicle id="veh25" type="veh_passenger" depart="72.21" departLane="best">
        <route edges="-28026990#4 -28026990#3 28027085#0 28027087 28027090#0 28027090#1 28027468#3 28027468#4 28027469#0 28027469#2 28027470#0 28027470#1 28027589#0 28027589#1 28027589#2 28027589#3 28027589#4 28030460#0 28030460#1 28030463"/>
    </vehicle>
    <vehicle id="veh26" type="veh_passenger" depart="75.09" departLane="best">
        <route edges="-28021111#5.14 -28021111#3.20 -28021111#2 -28021111#1 24526883#0 24526883#1 174897325#0 174897325#2 254362790#0 E39 1107701854#2 28020970#1 1107701847 1107701847.173 881567590#0 881567590#1 689277281#1 689277281#2 689277281#3 689277289#0 689277289#1 -591402342#1 -591402342#0 -22674672 22674680#0 23748761#4 23748761#5 1002022808#0 1002022809 1002022807"/>
    </vehicle>
    <vehicle id="veh27" type="veh_passenger" depart="77.98" departLane="best" departSpeed="max">
        <route edges="E7 164945661#1 23749315#4 23749315#5 23749315#6 23749315#7 23749315#8 23749315#9.15 164945645 -28021111#5 -28021111#5.14 -28021111#3.20 -28021111#2 -28021111#1 24526883#0 24526883#1 174897325#0 174897325#2 254362790#0 1107701852 247765090 1024951107 1024951108 666132796 22468300#6 22468300#7 22468300#8 22468300#9 22468300#10 22468300#1 174457572 23965518"/>
    </vehicle>
    <vehicle id="veh29" type="veh_passenger" depart="83.76" departLane="best">
        <route edges="689277289#1 -591402342#1 -591402342#0 -22674672 22674680#0 23748761#4 23748761#5 44419464#0 44419386#0"/>
    </vehicle>
    <vehicle id="veh30" type="veh_passenger" depart="86.65" departLane="best">
        <route edges="292643664#5 292643664#7 -105467444#4 -105467444#3 -105467444#2 -105467444#1 -105467444#0 -228894136#1 -228894136#0 157989172#1 157986566#1 157986566#2 157986566#3 157989175#0 157989175#1 157989175#2 157989175#3 157989542#3 157989543#0 157989543#1 157989544 104493143#0 104493143#1 44420553#2 44420553#3 44420541 104493151#0 104493151#1 104493151#2 104493151#3 104493151#4 102173037#0 102173037#1 102173037#2 102173037#3 102173037#4"/>
    </vehicle>
    <vehicle id="veh31" type="veh_passenger" depart="89.54" departLane="best">
        <route edges="-83674640#0 -83674652#0 -83674642#0 494280068#1 494280065 83674643 916760970 916760969 916760971#1 44419470#5 44419470#7 23748847#1 23748847#2 23748877#0 23748877#1 23748877#2 23748877#3 23748877#4 23748860#1 23748860#2 28866079#0 28866079#1 157989177 157986566#3 157989175#0 157989175#1 157989175#2 157989175#3 157989542#3 157989542#4 157989542#5 157989540 -620127938#5 -620127938#4 -620127938#3 -620127938#2 -620127938#1 -620127938#0"/>
    </vehicle>
   
   
   
    <vehicle id="veh435" type="veh_passenger" depart="1256.40" departLane="best">
        <route edges="28038025 620127950#0 620127950#1 620127949#1 620127952#0 620127952#1 620127951#0 -292643664#0 -620127946#2 -620127946#0 -620127948#1 292643665#0 E34 E33 292643665#3 292643665#4 22650412#5 22650412#6 22650412#7 28000506#0 -190876198 -1136268465 -102165688#1 -102165688#0 -619881884 -102164657 E12 102165317#5 102164664 -102165319 -356789687 E44 -E43 -717380723#10 -717380723#9 -717380723#8 -717380723#7 -717380723#6 -717380723#5 -717380723#4 -717380723#3 -717380723#2 -717380723#1 -717380723#0 -997771259#1 -997771259#0 100101564 88439558#0 88439558#1 88439558#2 88439558#3 88439558#4 -100101655 -99939355#1"/>
    </vehicle>
    <vehicle id="veh436" type="veh_passenger" depart="1259.28" departLane="best" departSpeed="max">
        <route edges="E2 105576888 254360505#3 254360505#4 24520290#4 24520290#5 24520290#6 620120791 24526908#0 24526908#2 24526908#3 24526908#4 24526908#5 24526908#6 23748847#4 -44419470#7 -44419470#6 -44419470#3 -561322877#3 -561322877#2 -83701784 -907839357#0 -51167745#7 -51167745#6 -51167745#5 -51167745#4 -51167745#3 -51167745#2"/>
    </vehicle>
    <vehicle id="veh437" type="veh_passenger" depart="1262.17" departLane="best" departSpeed="max">
        <route edges="-916754558#1 -916754558#0 83675530#2 534491433#0 -24526908#0 -620120791 24520290#1 24520290#2 24520408#0 24520408#1 85224612#0 85224612#1 85224612#2 160615651#0 160615651#1 160615651#3 160615651#4 160615651#5 160615651#6 292643665#0 E34 E33 292643665#3 292643665#4 22650412#5 22650417#0 22650417#1 22650417#2 22650417#3 22650417#4 23749113#5 23749079#0 23749079#1 23749079#1.237 22650375#3 44420537#0"/>
    </vehicle>
    <vehicle id="veh438" type="veh_passenger" depart="1265.06" departLane="best">
        <route edges="-1002022809 -1002022806#1 -44419254#4 44419254#4 1002022806#0 -1002022808#1 -23748761#5 -23748761#4 570426100#3 22674672 591402342#0 591402342#1 689277290#0 689277290#1 689277281#5 689277281#6 689277281#7 689277281#8 689277281#9 689277285#0 689277285#1 28020753#0 28020753#1 28020753#2 1107701845 28021059#1 1107701841 1107701839#0 1107701839#1 563359083 28021110 174897325#0 174897325#2 254362790#0 E39 1107701854#2 1107701854#4 -174897333#6 -174897333#5"/>
    </vehicle>
    <vehicle id="veh439" type="veh_passenger" depart="1267.95" departLane="best">
        <route edges="104493131#0 104493131#1 104493131#2 104493131#3 104493131#4 104493131#5 923157461 44420520#5 44420520#6 44420520#7 44420520#8 44420520#1 44420681#0 44420681#1 -44420660#1 -44420660#0 -620127942 -103670697#4 -103670697#3 -103670697#2 -103670697#1 -103670697#0 -807805157#2 -807805157#1 -807805157#0 E35 292643665#3 292643665#4 22650412#5 22650412#6 22650412#7 22650412#0 22650412#1 22650422#0 22650422#1 22650422#2 22650422#3 22650422#4 22650420#7 23749340 254360506#1 254360506#2 23749315#6 23749315#7 23749315#8 23749315#9.15 164945645 -28021111#5 -28021111#5.14 -28021111#3.20 -28021111#2 -28021111#1 24526883#0 24526883#1 174897325#0 174897325#2 254362790#0 E39 1107701854#2 28020970#1"/>
    </vehicle>
    <vehicle id="veh440" type="veh_passenger" depart="1270.84" departLane="best">
        <route edges="28020753#2 1107701845 28021059#1 1107701841 1107701839#0 1107701839#1 563359083 174897340 1107701836 28021111#1 28021111#1.61 28021111#2 28021111#3 28021111#5 28021111#5.27 570426792 23749315#2 23749315#3 23749315#4 23749363#0 23749363#1 23749363#3 23749363#4 22650420#1 22650420#2 22650420#3 22650420#4 22650420#5 22650432 254360502#1 254360502#2 254360502#3 22650412#3 22650412#4 22650412#5 22650417#0 22650417#1 22650417#2 22650417#3 22650417#4 23749113#5 23749079#0 23749079#1 23749079#1.237 22650375#3 22650375#4 22650375#5 22650375#6 22650375#7 22650375#1 22650414#0 22650414#0.19 22650414#1 22650414#2 22650414#2.34 22650414#3"/>
    </vehicle>
    <vehicle id="veh442" type="veh_passenger" depart="1276.61" departLane="best">
        <route edges="102077270#5 102077270#6 102077257#4 102077257#1 102077272#0 102145995 -99885096#0 -923329650 -44420691#2 -44420691#1 -44420691#0 44420707#0 44420707#1 44420520#7 44420520#8 44420520#1 44420681#0 44420681#1 -44420660#1 -44420660#0 -620127942 -103670697#4 -103670697#3 -103670697#2 -103670697#1 -103670697#0 -807805157#2 -807805157#1 -807805157#0"/>
    </vehicle>
    <vehicle id="veh443" type="veh_passenger" depart="1279.50" departLane="best" departSpeed="max">
        <route edges="22650366 22650364#5 22650368#0 22650368#1 356792291#4 356792291#5 22650367#0 22650367#1 22650367#2 22650367#4 22650367#5 22650367#6 22650375#6 22650375#7 22650375#1 22650414#0 22650414#0.19 22650414#1 22650414#2 22650414#2.34 22650414#3 23749113#1 23749113#2 23749113#3 23749115#0 23749115#1 23749115#2 22650412#7 22650412#0 22650412#1 22650412#2 22650412#3 23749256#0 23749256#1 23749256#2 620127944 620127948#1 620127946#0 620127946#2 292643664#0 292643664#4 292643664#5 292643664#7 292643664#9 -83675534#0 -83675540#3 -83675540#2 -83675533#1 83675532"/>
    </vehicle>
    <vehicle id="veh444" type="veh_passenger" depart="1282.39" departLane="best" departSpeed="max">
        <route edges="-28038145#2 28037991#3 28037991#5 28037991#7 620127952#1 620127951#0 292643664#4 292643664#5 292643664#7 -105467444#4 -105467444#3 -105467444#2 -105467444#1 -105467444#0 -228894136#1 -228894136#0 157989172#1 157986566#1 157986566#2 157986566#3 157989175#0 157989175#1 157989175#2 157989175#3 157989542#3 157989543#0 157989543#1 157989544 104493143#0 104493143#1 44420553#2 -105196530#1 -1033371821 -105196553#2 -105196553#1 -105196553#0"/>
    </vehicle>
    <vehicle id="veh445" type="veh_passenger" depart="1285.28" departLane="best" departSpeed="max">
        <route edges="620127935#0 620127935#1 620127937 923412449#0 99885096#0 99885096#1 99885096#2 99885096#3 99885096#5 99885096#6 99885096#7 99885096#8 99885096#9 99885096#10 -104493151#5 -104493151#3 -104493151#2 -104493151#1 -104493151#0 104493159 44420553#5 44420553#6 44420553#0 104493134#0 104493134#1 -157989544 157989541 157989542#5 157989542#6 157989542#1 157989173#0 157989173#1 157989173#2 157986566#5 157986566#6 157986566#1 157989171 -28866079#1 -28866079#0 23748860#3 23748860#4 -23748877#4 -23748877#3 -23748877#2 -23748877#1 -23748877#0 23748847#3 23748847#4 -44419470#7 -44419470#6 916760971#2 916760971#3 620120795#3 620120795#1 83674770#0 83674770#1"/>
    </vehicle>
    <vehicle id="veh446" type="veh_passenger" depart="1288.17" departLane="best">
        <route edges="-717380720#3 717380718#0 717380718#1 717380719#2 717380719#3 717380719#4 717380719#5 717380719#6 -342586722#1 -342586722#0 E42 -E44 356789687 102165316 102165313 102165317#0 102165317#1 102165317#2 102165317#3 E13 102164657 619881884 102165688#0 102165688#1 1136268465 190876198 28000507#1 22650412#1 22650412#2 22650412#3 22650412#4 22650412#5 22650417#0 22650417#1 22650417#2 22650417#3 22650417#4 23749113#5 23749079#0 23749079#1 23749079#1.237 22650375#3 22650375#4 22650378#0 22650378#1 22650378#2 22650378#3 356792291#1 356792291#2 356792299#0 356792299#1 356792299#1.147 22650364#1 E28 -559475282#4 -559475282#3 102145966"/>
    </vehicle>
    <vehicle id="veh447" type="veh_passenger" depart="1291.06" departLane="best">
        <route edges="-23031244#3 -23031244#2 -23031244#1 -23031244#0 559475282#0 559475282#1 559475282#2 559475282#3 559475282#4 E29 22650364#3 22650364#4 22650364#5 22650368#0 22650368#1 356792291#4 356792291#5 22650367#0 22650367#1 22650367#2 22650367#4 22650367#5 22650367#6 22650375#6 22650375#7 22650375#1 22650414#0 22650414#0.19 22650414#1 22650414#2 22650414#2.34 22650414#3 23749113#1 23749113#2 23749113#3 23749115#0 23749115#1 23749115#2 22650412#7 28000506#0 -190876198 -1136268465 -102165688#1 -102165688#0 -619881884 -102164657 E12 102165317#5 102164664 -102165319 -356789687 E44 -E43 -717380723#10 -717380723#9 -717380723#8 -717380723#7 -717380723#6 -717380723#5 -717380723#4 -717380723#3 -717380723#2 -717380723#1 -717380723#0 -997771259#1 -997771259#0 -100101558#4 -100101558#3 -100101558#2 88439557 88439576#0 88439576#1 88439576#2 88439576#3 88439574#0 88439574#1"/>
    </vehicle>
    <vehicle id="veh448" type="veh_passenger" depart="1293.94" departLane="best">
        <route edges="717380723#0 717380723#1 717380723#2 717380723#3 717380723#4 717380723#5 717380723#6 717380723#7 717380723#8 717380723#9 717380723#10 E43 -E44 356789687 102165316 102165313 102165317#0 102165317#1 102165317#2 102165317#3 E13 102164657 619881884 102165688#0 102165688#1 1136268465 190876198 28000507#1 22650412#1 22650422#0 22650422#1 22650422#2 22650422#3 22650422#4 22650420#7 23749340 254360506#1 254360506#2 23749315#6 23749315#7 23749315#8 23749315#9.15 164945645 -28021111#5 -28021111#5.14 -28021111#3.20 -28021111#2 -28021111#1 24526883#0 24526883#1 174897325#0 174897325#2 254362790#0 E39 1107701854#2 28020970#1 1107701847"/>
    </vehicle>
    <vehicle id="veh449" type="veh_passenger" depart="1296.83" departLane="best" departSpeed="max">
        <route edges="-120588586#5 102092750#0 102092750#1 102077270#2 102077270#3 102077270#4 102077270#5 102077270#6 102077257#4 102077257#1 102077272#0 102145995 -99885096#0 -923329650 -44420691#2 -44420691#1 -44420691#0 44420707#0 44420707#1 44420520#7 44420520#8 44420520#1 44420681#0 44420681#1 -44420660#1 -44420660#0 -620127942 -103670697#4 -103670697#3 -103670697#2 -103670697#1 -103670697#0 -807805157#2 -807805157#1 -807805157#0 E35 292643665#3 292643665#4 22650412#5 22650412#6 22650412#7 22650412#0 22650412#1 22650422#0 22650422#1 22650422#2 22650422#3 22650422#4 22650420#7 22650420#8 22650420#1 22650446#0 22650446#1 542209564#7 542209564#8 542209564#1 1024920554 689277287#1 1024920555#0 1024920555#1 689277281#9 689277281#10 689277281#1 689277281#2 689277281#3 689277281#4 689277281#5 966303574#0 966303574#1 966303575 1024948819 689277283 918645546 918645545 814259721"/>
    </vehicle>
    <vehicle id="veh450" type="veh_passenger" depart="1299.72" departLane="best">
        <route edges="28014492#2 170556796#3 170556796#4 26104213#0 -23903302#3 -23903302#1 -23903302#0 23749390 23749315#8 23749315#9.15 23749315#1 23749315#2 23749315#3 23749315#4 23749363#0 23749363#1 23749363#3 23749363#4 22650420#1 22650420#2 22650420#3 24520391 254360505#0 254360505#1 254360505#2 254360505#3 254360505#4 24520290#4 24520290#5 24520290#6 24520290#1 28038025"/>
    </vehicle>
    <vehicle id="veh453" type="veh_passenger" depart="1308.39" departLane="best" departSpeed="max">
        <route edges="102081695#0 -102081702#1 -102081702#0 102077270#2 102077270#3 102077270#4 102077270#5 102077270#6 102077257#4 102077257#1 102077272#0 102145995 -99885096#0 -923329650 -44420691#2 -44420691#1 -44420691#0 44420707#0 44420707#1 44420520#7 44420520#8 44420520#1 44420681#0 44420681#1 -44420660#1 -44420660#0 -620127942 -103670697#4 -103670697#3 -103670697#2 -103670697#1 -103670697#0 -807805157#2 -807805157#1 -807805157#0 E35 292643665#3 292643665#4 22650412#5 22650412#6 22650412#7 22650412#0 22650412#1 22650422#0 22650422#1 22650422#2 22650422#3 22650422#4 22650420#7 23749340 254360506#1 254360506#2 23749315#6 23749315#7 23749315#8 23749315#9.15 164945645 -28021111#5 -28021111#5.14 -28021111#3.20 -28021111#2 -28021111#1 24526883#0 24526883#1 174897325#0 174897325#2 254362790#0 E39 1107701854#2 1107701854#4 -174897333#6 -174897333#5 -174897333#4 -174897333#3 -174897333#2"/>
    </vehicle>
    <vehicle id="veh454" type="veh_passenger" depart="1311.27" departLane="best">
        <route edges="1107701845 28021059#1 1107701841 1107701839#0 1107701839#1 563359083 174897340 1107701836 28021111#1 28021111#1.61 28021111#2 28021111#3 28021111#5 28021111#5.27 570426792 23749315#2 23749315#3 23749315#4 23749363#0 23749363#1 23749363#3 23749363#4 22650420#1 22650420#2 22650420#3 22650420#4 22650420#5 22650432 254360502#1 254360502#2 254360502#3 22650412#3 22650412#4 22650412#5 22650417#0 22650417#1 22650417#2 22650417#3 22650417#4 23749113#5 23749079#0 23749079#1 23749079#1.237 22650375#3 22650375#4 22650378#0 22650378#1 22650378#2 22650378#3 356792291#1 356792291#2 356792299#0 356792299#1 356792299#1.147 22650364#1 E28 -559475282#4 -559475282#3 102145966"/>
    </vehicle>
    <vehicle id="veh455" type="veh_passenger" depart="1314.16" departLane="best" departSpeed="max">